#======================================================================

# CRYSTAL DATA

#----------------------------------------------------------------------

data_VESTA_phase_1


_chemical_name_common                  'O Si Hg                               '
_cell_length_a                         20.30965
_cell_length_b                         19.86252
_cell_length_c                         13.37115
_cell_angle_alpha                      90
_cell_angle_beta                       90
_cell_angle_gamma                      90
_space_group_name_H-M_alt              'P 1'
_space_group_IT_number                 1

loop_
_space_group_symop_operation_xyz
   'x, y, z'

loop_
   _atom_site_label
   _atom_site_occupancy
   _atom_site_fract_x
   _atom_site_fract_y
   _atom_site_fract_z
   _atom_site_adp_type
   _atom_site_B_iso_or_equiv
   _atom_site_type_symbol
   O1         1.0     0.502591      0.072780      0.707525     Biso  1.000000 O
   O2         1.0     0.997409      0.572780      0.207525     Biso  1.000000 O
   O3         1.0     0.502591      0.427220      0.707525     Biso  1.000000 O
   O4         1.0     0.997361      0.927219      0.207655     Biso  1.000000 O
   O5         1.0     0.497344      0.927175      0.292472     Biso  1.000000 O
   O6         1.0     0.002591      0.427220      0.792475     Biso  1.000000 O
   O7         1.0     0.497409      0.572780      0.292475     Biso  1.000000 O
   O8         1.0     0.002591      0.072780      0.792475     Biso  1.000000 O
   O9         1.0     0.386883      0.069389      0.795840     Biso  1.000000 O
   O10        1.0     0.113117      0.569389      0.295840     Biso  1.000000 O
   O11        1.0     0.386883      0.430611      0.795840     Biso  1.000000 O
   O12        1.0     0.113005      0.930815      0.296201     Biso  1.000000 O
   O13        1.0     0.612967      0.930799      0.203917     Biso  1.000000 O
   O14        1.0     0.886883      0.430611      0.704160     Biso  1.000000 O
   O15        1.0     0.613117      0.569389      0.204160     Biso  1.000000 O
   O16        1.0     0.886883      0.069389      0.704160     Biso  1.000000 O
   O17        1.0     0.402400      0.139588      0.629957     Biso  1.000000 O
   O18        1.0     0.097653      0.639660      0.130218     Biso  1.000000 O
   O19        1.0     0.402400      0.360412      0.629957     Biso  1.000000 O
   O20        1.0     0.097667      0.860316      0.130733     Biso  1.000000 O
   O21        1.0     0.597644      0.860367      0.369552     Biso  1.000000 O
   O22        1.0     0.902400      0.360412      0.870043     Biso  1.000000 O
   O23        1.0     0.597634      0.639677      0.369742     Biso  1.000000 O
   O24        1.0     0.902400      0.139588      0.870043     Biso  1.000000 O
   O25        1.0     0.404503      0.005183      0.622751     Biso  1.000000 O
   O26        1.0     0.095497      0.505183      0.122751     Biso  1.000000 O
   O27        1.0     0.404503      0.494817      0.622751     Biso  1.000000 O
   O28        1.0     0.095510      0.994743      0.122718     Biso  1.000000 O
   O29        1.0     0.595477      0.994777      0.377286     Biso  1.000000 O
   O30        1.0     0.904503      0.494817      0.877249     Biso  1.000000 O
   O31        1.0     0.595497      0.505183      0.377249     Biso  1.000000 O
   O32        1.0     0.904503      0.005183      0.877249     Biso  1.000000 O
   O33        1.0     0.324413      0.039532      0.963993     Biso  1.000000 O
   O34        1.0     0.175587      0.539532      0.463993     Biso  1.000000 O
   O35        1.0     0.324413      0.460468      0.963993     Biso  1.000000 O
   O36        1.0     0.175680      0.960459      0.464068     Biso  1.000000 O
   O37        1.0     0.675628      0.960472      0.035982     Biso  1.000000 O
   O38        1.0     0.824413      0.460468      0.536007     Biso  1.000000 O
   O39        1.0     0.675587      0.539532      0.036007     Biso  1.000000 O
   O40        1.0     0.824413      0.039532      0.536007     Biso  1.000000 O
   O41        1.0     0.324443      0.953810      0.808725     Biso  1.000000 O
   O42        1.0     0.175356      0.453807      0.308827     Biso  1.000000 O
   O43        1.0     0.324644      0.546193      0.808827     Biso  1.000000 O
   O44        1.0     0.175356      0.046193      0.308827     Biso  1.000000 O
   O45        1.0     0.675356      0.046193      0.191173     Biso  1.000000 O
   O46        1.0     0.824644      0.546193      0.691173     Biso  1.000000 O
   O47        1.0     0.675356      0.453807      0.191173     Biso  1.000000 O
   O48        1.0     0.824420      0.953834      0.691303     Biso  1.000000 O
   O49        1.0     0.255425      0.066602      0.802208     Biso  1.000000 O
   O50        1.0     0.244575      0.566602      0.302208     Biso  1.000000 O
   O51        1.0     0.255425      0.433398      0.802208     Biso  1.000000 O
   O52        1.0     0.244576      0.933397      0.302204     Biso  1.000000 O
   O53        1.0     0.744511      0.933354      0.197867     Biso  1.000000 O
   O54        1.0     0.755425      0.433398      0.697792     Biso  1.000000 O
   O55        1.0     0.744575      0.566602      0.197792     Biso  1.000000 O
   O56        1.0     0.755425      0.066602      0.697792     Biso  1.000000 O
   O57        1.0     0.291529      0.127184      0.103820     Biso  1.000000 O
   O58        1.0     0.208408      0.627177      0.603734     Biso  1.000000 O
   O59        1.0     0.291529      0.372816      0.103820     Biso  1.000000 O
   O60        1.0     0.208284      0.872836      0.603946     Biso  1.000000 O
   O61        1.0     0.708508      0.872870      0.896125     Biso  1.000000 O
   O62        1.0     0.791529      0.372816      0.396180     Biso  1.000000 O
   O63        1.0     0.708321      0.627124      0.896147     Biso  1.000000 O
   O64        1.0     0.791529      0.127184      0.396180     Biso  1.000000 O
   O65        1.0     0.201041      0.042827      0.029077     Biso  1.000000 O
   O66        1.0     0.298959      0.542827      0.529077     Biso  1.000000 O
   O67        1.0     0.201041      0.457173      0.029077     Biso  1.000000 O
   O68        1.0     0.298948      0.957110      0.529151     Biso  1.000000 O
   O69        1.0     0.798945      0.957362      0.971010     Biso  1.000000 O
   O70        1.0     0.701041      0.457173      0.470923     Biso  1.000000 O
   O71        1.0     0.798959      0.542827      0.970923     Biso  1.000000 O
   O72        1.0     0.701041      0.042827      0.470923     Biso  1.000000 O
   O73        1.0     0.296890      0.997856      0.147028     Biso  1.000000 O
   O74        1.0     0.203110      0.497856      0.647027     Biso  1.000000 O
   O75        1.0     0.296890      0.502144      0.147028     Biso  1.000000 O
   O76        1.0     0.203110      0.002144      0.647027     Biso  1.000000 O
   O77        1.0     0.703110      0.002144      0.852973     Biso  1.000000 O
   O78        1.0     0.796890      0.502144      0.352973     Biso  1.000000 O
   O79        1.0     0.703110      0.497856      0.852973     Biso  1.000000 O
   O80        1.0     0.796890      0.997856      0.352973     Biso  1.000000 O
   O81        1.0     0.108994      0.126746      0.095867     Biso  1.000000 O
   O82        1.0     0.390911      0.626788      0.595696     Biso  1.000000 O
   O83        1.0     0.108994      0.373254      0.095867     Biso  1.000000 O
   O84        1.0     0.391034      0.873293      0.595723     Biso  1.000000 O
   O85        1.0     0.890774      0.873277      0.904293     Biso  1.000000 O
   O86        1.0     0.608994      0.373254      0.404133     Biso  1.000000 O
   O87        1.0     0.890872      0.626784      0.904279     Biso  1.000000 O
   O88        1.0     0.608994      0.126746      0.404133     Biso  1.000000 O
   O89        1.0     0.083123      0.046356      0.943295     Biso  1.000000 O
   O90        1.0     0.416877      0.546356      0.443295     Biso  1.000000 O
   O91        1.0     0.083123      0.453644      0.943295     Biso  1.000000 O
   O92        1.0     0.416834      0.953625      0.443218     Biso  1.000000 O
   O93        1.0     0.916890      0.953618      0.056771     Biso  1.000000 O
   O94        1.0     0.583123      0.453644      0.556705     Biso  1.000000 O
   O95        1.0     0.916877      0.546356      0.056705     Biso  1.000000 O
   O96        1.0     0.583123      0.046356      0.556705     Biso  1.000000 O
   O97        1.0     0.128960      0.079409      0.763059     Biso  1.000000 O
   O98        1.0     0.371040      0.579409      0.263059     Biso  1.000000 O
   O99        1.0     0.128960      0.420591      0.763059     Biso  1.000000 O
   O100       1.0     0.371073      0.920567      0.263018     Biso  1.000000 O
   O101       1.0     0.871027      0.920592      0.236945     Biso  1.000000 O
   O102       1.0     0.628960      0.420591      0.736941     Biso  1.000000 O
   O103       1.0     0.871040      0.579409      0.236941     Biso  1.000000 O
   O104       1.0     0.628960      0.079409      0.736941     Biso  1.000000 O
   O105       1.0     0.073643      0.960270      0.791075     Biso  1.000000 O
   O106       1.0     0.426424      0.460303      0.290879     Biso  1.000000 O
   O107       1.0     0.073576      0.539697      0.790879     Biso  1.000000 O
   O108       1.0     0.426424      0.039697      0.290879     Biso  1.000000 O
   O109       1.0     0.926424      0.039697      0.209121     Biso  1.000000 O
   O110       1.0     0.573576      0.539697      0.709121     Biso  1.000000 O
   O111       1.0     0.926424      0.460303      0.209121     Biso  1.000000 O
   O112       1.0     0.573546      0.960274      0.708934     Biso  1.000000 O
   O113       1.0     0.216490      0.136163      0.646516     Biso  1.000000 O
   O114       1.0     0.283674      0.636249      0.146669     Biso  1.000000 O
   O115       1.0     0.216490      0.363837      0.646516     Biso  1.000000 O
   O116       1.0     0.283746      0.863732      0.146729     Biso  1.000000 O
   O117       1.0     0.783686      0.863767      0.353391     Biso  1.000000 O
   O118       1.0     0.716490      0.363837      0.853484     Biso  1.000000 O
   O119       1.0     0.783612      0.636215      0.353410     Biso  1.000000 O
   O120       1.0     0.716490      0.136163      0.853484     Biso  1.000000 O
   O121       1.0     0.495988      0.852931      0.713398     Biso  1.000000 O
   O122       1.0     0.004187      0.353136      0.214009     Biso  1.000000 O
   O123       1.0     0.495842      0.646936      0.713408     Biso  1.000000 O
   O124       1.0     0.004187      0.146864      0.214009     Biso  1.000000 O
   O125       1.0     0.504187      0.146864      0.285991     Biso  1.000000 O
   O126       1.0     0.995895      0.646972      0.786803     Biso  1.000000 O
   O127       1.0     0.504187      0.353136      0.285991     Biso  1.000000 O
   O128       1.0     0.996005      0.853027      0.787165     Biso  1.000000 O
   O129       1.0     0.377944      0.833323      0.785798     Biso  1.000000 O
   O130       1.0     0.122339      0.333069      0.285807     Biso  1.000000 O
   O131       1.0     0.377806      0.666811      0.785712     Biso  1.000000 O
   O132       1.0     0.122339      0.166931      0.285807     Biso  1.000000 O
   O133       1.0     0.622339      0.166931      0.214193     Biso  1.000000 O
   O134       1.0     0.877901      0.666735      0.714184     Biso  1.000000 O
   O135       1.0     0.622339      0.333069      0.214193     Biso  1.000000 O
   O136       1.0     0.878135      0.833461      0.714066     Biso  1.000000 O
   O137       1.0     0.423814      0.750024      0.646945     Biso  1.000000 O
   O138       1.0     0.075921      0.250000      0.147243     Biso  1.000000 O
   O139       1.0     0.575921      0.250000      0.352757     Biso  1.000000 O
   O140       1.0     0.923731      0.750035      0.852956     Biso  1.000000 O
   O141       1.0     0.317413      0.864742      0.955250     Biso  1.000000 O
   O142       1.0     0.182472      0.364636      0.455308     Biso  1.000000 O
   O143       1.0     0.317432      0.635295      0.955237     Biso  1.000000 O
   O144       1.0     0.182472      0.135364      0.455308     Biso  1.000000 O
   O145       1.0     0.682472      0.135364      0.044692     Biso  1.000000 O
   O146       1.0     0.817450      0.635278      0.544764     Biso  1.000000 O
   O147       1.0     0.682472      0.364636      0.044692     Biso  1.000000 O
   O148       1.0     0.817469      0.864769      0.544752     Biso  1.000000 O
   O149       1.0     0.247800      0.846592      0.790316     Biso  1.000000 O
   O150       1.0     0.252442      0.347029      0.290604     Biso  1.000000 O
   O151       1.0     0.247674      0.653183      0.790316     Biso  1.000000 O
   O152       1.0     0.252442      0.152971      0.290604     Biso  1.000000 O
   O153       1.0     0.752442      0.152971      0.209396     Biso  1.000000 O
   O154       1.0     0.747712      0.653227      0.709663     Biso  1.000000 O
   O155       1.0     0.752442      0.347029      0.209396     Biso  1.000000 O
   O156       1.0     0.747930      0.846508      0.709715     Biso  1.000000 O
   O157       1.0     0.296085      0.750015      0.050253     Biso  1.000000 O
   O158       1.0     0.204751      0.250000      0.550248     Biso  1.000000 O
   O159       1.0     0.704751      0.250000      0.949752     Biso  1.000000 O
   O160       1.0     0.795731      0.750012      0.449921     Biso  1.000000 O
   O161       1.0     0.196184      0.832092      0.007191     Biso  1.000000 O
   O162       1.0     0.303967      0.332717      0.506256     Biso  1.000000 O
   O163       1.0     0.196219      0.667995      0.006940     Biso  1.000000 O
   O164       1.0     0.303967      0.167283      0.506256     Biso  1.000000 O
   O165       1.0     0.803967      0.167283      0.993744     Biso  1.000000 O
   O166       1.0     0.696124      0.667681      0.493297     Biso  1.000000 O
   O167       1.0     0.803967      0.332717      0.993744     Biso  1.000000 O
   O168       1.0     0.696124      0.832377      0.493199     Biso  1.000000 O
   O169       1.0     0.092825      0.750057      0.020247     Biso  1.000000 O
   O170       1.0     0.406844      0.250000      0.519959     Biso  1.000000 O
   O171       1.0     0.906844      0.250000      0.980041     Biso  1.000000 O
   O172       1.0     0.592953      0.750026      0.479791     Biso  1.000000 O
   O173       1.0     0.081371      0.869942      0.934963     Biso  1.000000 O
   O174       1.0     0.419168      0.369616      0.434205     Biso  1.000000 O
   O175       1.0     0.081393      0.630305      0.934476     Biso  1.000000 O
   O176       1.0     0.419168      0.130384      0.434205     Biso  1.000000 O
   O177       1.0     0.919168      0.130384      0.065795     Biso  1.000000 O
   O178       1.0     0.581100      0.630289      0.565439     Biso  1.000000 O
   O179       1.0     0.919168      0.369616      0.065795     Biso  1.000000 O
   O180       1.0     0.581128      0.869728      0.565340     Biso  1.000000 O
   O181       1.0     0.121478      0.839853      0.748119     Biso  1.000000 O
   O182       1.0     0.378594      0.339902      0.247506     Biso  1.000000 O
   O183       1.0     0.121370      0.660040      0.747537     Biso  1.000000 O
   O184       1.0     0.378594      0.160098      0.247506     Biso  1.000000 O
   O185       1.0     0.878594      0.160098      0.252495     Biso  1.000000 O
   O186       1.0     0.621381      0.660086      0.752190     Biso  1.000000 O
   O187       1.0     0.878594      0.339902      0.252495     Biso  1.000000 O
   O188       1.0     0.621586      0.840016      0.752131     Biso  1.000000 O
   O189       1.0     0.202836      0.749975      0.670836     Biso  1.000000 O
   O190       1.0     0.296813      0.250000      0.171318     Biso  1.000000 O
   O191       1.0     0.796813      0.250000      0.328682     Biso  1.000000 O
   O192       1.0     0.702815      0.749956      0.829135     Biso  1.000000 O
   Si1        1.0     0.424010      0.071224      0.687981     Biso  1.000000 Si
   Si2        1.0     0.075990      0.571224      0.187981     Biso  1.000000 Si
   Si3        1.0     0.424010      0.428776      0.687981     Biso  1.000000 Si
   Si4        1.0     0.075953      0.928847      0.188314     Biso  1.000000 Si
   Si5        1.0     0.575926      0.928833      0.311823     Biso  1.000000 Si
   Si6        1.0     0.924010      0.428776      0.812019     Biso  1.000000 Si
   Si7        1.0     0.575990      0.571224      0.312019     Biso  1.000000 Si
   Si8        1.0     0.924010      0.071224      0.812019     Biso  1.000000 Si
   Si9        1.0     0.322720      0.032351      0.843257     Biso  1.000000 Si
   Si10       1.0     0.177280      0.532351      0.343257     Biso  1.000000 Si
   Si11       1.0     0.322720      0.467649      0.843257     Biso  1.000000 Si
   Si12       1.0     0.177333      0.967702      0.343369     Biso  1.000000 Si
   Si13       1.0     0.677281      0.967696      0.156702     Biso  1.000000 Si
   Si14       1.0     0.822720      0.467649      0.656743     Biso  1.000000 Si
   Si15       1.0     0.677280      0.532351      0.156743     Biso  1.000000 Si
   Si16       1.0     0.822720      0.032351      0.656743     Biso  1.000000 Si
   Si17       1.0     0.277939      0.051958      0.061131     Biso  1.000000 Si
   Si18       1.0     0.222061      0.551958      0.561131     Biso  1.000000 Si
   Si19       1.0     0.277939      0.448042      0.061131     Biso  1.000000 Si
   Si20       1.0     0.222073      0.948002      0.561256     Biso  1.000000 Si
   Si21       1.0     0.722091      0.948086      0.938833     Biso  1.000000 Si
   Si22       1.0     0.777939      0.448042      0.438869     Biso  1.000000 Si
   Si23       1.0     0.722061      0.551958      0.938869     Biso  1.000000 Si
   Si24       1.0     0.777939      0.051958      0.438869     Biso  1.000000 Si
   Si25       1.0     0.122510      0.052778      0.047994     Biso  1.000000 Si
   Si26       1.0     0.377490      0.552778      0.547994     Biso  1.000000 Si
   Si27       1.0     0.122510      0.447222      0.047994     Biso  1.000000 Si
   Si28       1.0     0.377469      0.947247      0.547875     Biso  1.000000 Si
   Si29       1.0     0.877442      0.947282      0.952136     Biso  1.000000 Si
   Si30       1.0     0.622510      0.447222      0.452006     Biso  1.000000 Si
   Si31       1.0     0.877490      0.552778      0.952006     Biso  1.000000 Si
   Si32       1.0     0.622510      0.052778      0.452006     Biso  1.000000 Si
   Si33       1.0     0.072230      0.039095      0.823540     Biso  1.000000 Si
   Si34       1.0     0.427770      0.539095      0.323540     Biso  1.000000 Si
   Si35       1.0     0.072230      0.460905      0.823540     Biso  1.000000 Si
   Si36       1.0     0.427739      0.960881      0.323511     Biso  1.000000 Si
   Si37       1.0     0.927755      0.960891      0.176508     Biso  1.000000 Si
   Si38       1.0     0.572230      0.460905      0.676460     Biso  1.000000 Si
   Si39       1.0     0.927770      0.539095      0.176460     Biso  1.000000 Si
   Si40       1.0     0.572230      0.039095      0.676460     Biso  1.000000 Si
   Si41       1.0     0.201104      0.070382      0.713528     Biso  1.000000 Si
   Si42       1.0     0.298896      0.570382      0.213528     Biso  1.000000 Si
   Si43       1.0     0.201104      0.429618      0.713528     Biso  1.000000 Si
   Si44       1.0     0.298941      0.929592      0.213587     Biso  1.000000 Si
   Si45       1.0     0.798903      0.929611      0.286462     Biso  1.000000 Si
   Si46       1.0     0.701104      0.429618      0.786472     Biso  1.000000 Si
   Si47       1.0     0.798896      0.570382      0.286472     Biso  1.000000 Si
   Si48       1.0     0.701104      0.070382      0.786472     Biso  1.000000 Si
   Si49       1.0     0.422424      0.827731      0.684918     Biso  1.000000 Si
   Si50       1.0     0.077615      0.327715      0.185185     Biso  1.000000 Si
   Si51       1.0     0.422352      0.672319      0.684892     Biso  1.000000 Si
   Si52       1.0     0.077615      0.172285      0.185185     Biso  1.000000 Si
   Si53       1.0     0.577615      0.172285      0.314815     Biso  1.000000 Si
   Si54       1.0     0.922356      0.672317      0.815100     Biso  1.000000 Si
   Si55       1.0     0.577615      0.327715      0.314815     Biso  1.000000 Si
   Si56       1.0     0.922395      0.827775      0.815167     Biso  1.000000 Si
   Si57       1.0     0.316963      0.874454      0.834691     Biso  1.000000 Si
   Si58       1.0     0.183068      0.374487      0.334784     Biso  1.000000 Si
   Si59       1.0     0.316951      0.625539      0.834692     Biso  1.000000 Si
   Si60       1.0     0.183068      0.125513      0.334784     Biso  1.000000 Si
   Si61       1.0     0.683068      0.125513      0.165216     Biso  1.000000 Si
   Si62       1.0     0.816962      0.625538      0.665310     Biso  1.000000 Si
   Si63       1.0     0.683068      0.374487      0.165216     Biso  1.000000 Si
   Si64       1.0     0.817040      0.874484      0.665303     Biso  1.000000 Si
   Si65       1.0     0.272990      0.827602      0.040068     Biso  1.000000 Si
   Si66       1.0     0.227331      0.327730      0.539796     Biso  1.000000 Si
   Si67       1.0     0.272991      0.672435      0.040027     Biso  1.000000 Si
   Si68       1.0     0.227331      0.172270      0.539796     Biso  1.000000 Si
   Si69       1.0     0.727331      0.172270      0.960204     Biso  1.000000 Si
   Si70       1.0     0.772862      0.672342      0.460110     Biso  1.000000 Si
   Si71       1.0     0.727331      0.327730      0.960204     Biso  1.000000 Si
   Si72       1.0     0.772880      0.827692      0.460106     Biso  1.000000 Si
   Si73       1.0     0.117201      0.827893      0.023648     Biso  1.000000 Si
   Si74       1.0     0.382905      0.327987      0.522827     Biso  1.000000 Si
   Si75       1.0     0.117240      0.672228      0.023261     Biso  1.000000 Si
   Si76       1.0     0.382905      0.172013      0.522827     Biso  1.000000 Si
   Si77       1.0     0.882905      0.172013      0.977173     Biso  1.000000 Si
   Si78       1.0     0.617166      0.672146      0.476782     Biso  1.000000 Si
   Si79       1.0     0.882905      0.327987      0.977173     Biso  1.000000 Si
   Si80       1.0     0.617165      0.827908      0.476628     Biso  1.000000 Si
   Si81       1.0     0.068555      0.880568      0.815837     Biso  1.000000 Si
   Si82       1.0     0.431642      0.380531      0.315052     Biso  1.000000 Si
   Si83       1.0     0.068462      0.619439      0.815417     Biso  1.000000 Si
   Si84       1.0     0.431642      0.119469      0.315052     Biso  1.000000 Si
   Si85       1.0     0.931642      0.119469      0.184948     Biso  1.000000 Si
   Si86       1.0     0.568386      0.619429      0.684560     Biso  1.000000 Si
   Si87       1.0     0.931642      0.380531      0.184948     Biso  1.000000 Si
   Si88       1.0     0.568493      0.880527      0.684487     Biso  1.000000 Si
   Si89       1.0     0.194913      0.828051      0.703497     Biso  1.000000 Si
   Si90       1.0     0.304981      0.328147      0.203483     Biso  1.000000 Si
   Si91       1.0     0.194913      0.671863      0.703348     Biso  1.000000 Si
   Si92       1.0     0.304981      0.171853      0.203483     Biso  1.000000 Si
   Si93       1.0     0.804981      0.171853      0.296517     Biso  1.000000 Si
   Si94       1.0     0.694887      0.671864      0.796564     Biso  1.000000 Si
   Si95       1.0     0.804981      0.328147      0.296517     Biso  1.000000 Si
   Si96       1.0     0.695051      0.828062      0.796599     Biso  1.000000 Si
   Hg1        1.0     0.304481      0.754803      0.416717     Biso  1.000000 Hg
