#======================================================================

# CRYSTAL DATA

#----------------------------------------------------------------------

data_VESTA_phase_1


_chemical_name_common                  'O Si Sc                               '
_cell_length_a                         20.30965
_cell_length_b                         19.86252
_cell_length_c                         13.37115
_cell_angle_alpha                      90
_cell_angle_beta                       90
_cell_angle_gamma                      90
_space_group_name_H-M_alt              'P 1'
_space_group_IT_number                 1

loop_
_space_group_symop_operation_xyz
   'x, y, z'

loop_
   _atom_site_label
   _atom_site_occupancy
   _atom_site_fract_x
   _atom_site_fract_y
   _atom_site_fract_z
   _atom_site_adp_type
   _atom_site_B_iso_or_equiv
   _atom_site_type_symbol
   O1         1.0     0.502591      0.072780      0.707525     Biso  1.000000 O
   O2         1.0     0.997409      0.572780      0.207525     Biso  1.000000 O
   O3         1.0     0.502591      0.427220      0.707525     Biso  1.000000 O
   O4         1.0     0.997339      0.927243      0.207615     Biso  1.000000 O
   O5         1.0     0.496859      0.927373      0.293530     Biso  1.000000 O
   O6         1.0     0.002591      0.427220      0.792475     Biso  1.000000 O
   O7         1.0     0.497409      0.572780      0.292475     Biso  1.000000 O
   O8         1.0     0.002591      0.072780      0.792475     Biso  1.000000 O
   O9         1.0     0.386883      0.069389      0.795840     Biso  1.000000 O
   O10        1.0     0.113117      0.569389      0.295840     Biso  1.000000 O
   O11        1.0     0.386883      0.430611      0.795840     Biso  1.000000 O
   O12        1.0     0.112852      0.931305      0.297158     Biso  1.000000 O
   O13        1.0     0.612652      0.930769      0.204140     Biso  1.000000 O
   O14        1.0     0.886883      0.430611      0.704160     Biso  1.000000 O
   O15        1.0     0.613117      0.569389      0.204160     Biso  1.000000 O
   O16        1.0     0.886883      0.069389      0.704160     Biso  1.000000 O
   O17        1.0     0.402400      0.139588      0.629957     Biso  1.000000 O
   O18        1.0     0.096766      0.639617      0.129657     Biso  1.000000 O
   O19        1.0     0.402400      0.360412      0.629957     Biso  1.000000 O
   O20        1.0     0.097592      0.860465      0.131290     Biso  1.000000 O
   O21        1.0     0.597273      0.859794      0.368847     Biso  1.000000 O
   O22        1.0     0.902400      0.360412      0.870043     Biso  1.000000 O
   O23        1.0     0.598007      0.640261      0.368375     Biso  1.000000 O
   O24        1.0     0.902400      0.139588      0.870043     Biso  1.000000 O
   O25        1.0     0.404503      0.005183      0.622751     Biso  1.000000 O
   O26        1.0     0.095497      0.505183      0.122751     Biso  1.000000 O
   O27        1.0     0.404503      0.494817      0.622751     Biso  1.000000 O
   O28        1.0     0.095279      0.994910      0.122941     Biso  1.000000 O
   O29        1.0     0.595992      0.994280      0.377745     Biso  1.000000 O
   O30        1.0     0.904503      0.494817      0.877249     Biso  1.000000 O
   O31        1.0     0.595497      0.505183      0.377249     Biso  1.000000 O
   O32        1.0     0.904503      0.005183      0.877249     Biso  1.000000 O
   O33        1.0     0.324413      0.039532      0.963993     Biso  1.000000 O
   O34        1.0     0.175587      0.539532      0.463993     Biso  1.000000 O
   O35        1.0     0.324413      0.460468      0.963993     Biso  1.000000 O
   O36        1.0     0.178779      0.961561      0.463799     Biso  1.000000 O
   O37        1.0     0.675231      0.960011      0.036128     Biso  1.000000 O
   O38        1.0     0.824413      0.460468      0.536007     Biso  1.000000 O
   O39        1.0     0.675587      0.539532      0.036007     Biso  1.000000 O
   O40        1.0     0.824413      0.039532      0.536007     Biso  1.000000 O
   O41        1.0     0.324134      0.954086      0.808759     Biso  1.000000 O
   O42        1.0     0.175356      0.453807      0.308827     Biso  1.000000 O
   O43        1.0     0.324644      0.546193      0.808827     Biso  1.000000 O
   O44        1.0     0.175356      0.046193      0.308827     Biso  1.000000 O
   O45        1.0     0.675356      0.046193      0.191173     Biso  1.000000 O
   O46        1.0     0.824644      0.546193      0.691173     Biso  1.000000 O
   O47        1.0     0.675356      0.453807      0.191173     Biso  1.000000 O
   O48        1.0     0.824185      0.953780      0.691721     Biso  1.000000 O
   O49        1.0     0.255425      0.066602      0.802208     Biso  1.000000 O
   O50        1.0     0.244575      0.566602      0.302208     Biso  1.000000 O
   O51        1.0     0.255425      0.433398      0.802208     Biso  1.000000 O
   O52        1.0     0.244278      0.932594      0.300318     Biso  1.000000 O
   O53        1.0     0.744419      0.933454      0.197504     Biso  1.000000 O
   O54        1.0     0.755425      0.433398      0.697792     Biso  1.000000 O
   O55        1.0     0.744575      0.566602      0.197792     Biso  1.000000 O
   O56        1.0     0.755425      0.066602      0.697792     Biso  1.000000 O
   O57        1.0     0.291529      0.127184      0.103820     Biso  1.000000 O
   O58        1.0     0.207344      0.626870      0.603624     Biso  1.000000 O
   O59        1.0     0.291529      0.372816      0.103820     Biso  1.000000 O
   O60        1.0     0.201806      0.872565      0.603928     Biso  1.000000 O
   O61        1.0     0.704834      0.873053      0.894542     Biso  1.000000 O
   O62        1.0     0.791529      0.372816      0.396180     Biso  1.000000 O
   O63        1.0     0.705477      0.626615      0.894579     Biso  1.000000 O
   O64        1.0     0.791529      0.127184      0.396180     Biso  1.000000 O
   O65        1.0     0.201041      0.042827      0.029077     Biso  1.000000 O
   O66        1.0     0.298959      0.542827      0.529077     Biso  1.000000 O
   O67        1.0     0.201041      0.457173      0.029077     Biso  1.000000 O
   O68        1.0     0.300660      0.949284      0.537958     Biso  1.000000 O
   O69        1.0     0.798356      0.955539      0.969504     Biso  1.000000 O
   O70        1.0     0.701041      0.457173      0.470923     Biso  1.000000 O
   O71        1.0     0.798959      0.542827      0.970923     Biso  1.000000 O
   O72        1.0     0.701041      0.042827      0.470923     Biso  1.000000 O
   O73        1.0     0.296890      0.997856      0.147028     Biso  1.000000 O
   O74        1.0     0.203110      0.497856      0.647027     Biso  1.000000 O
   O75        1.0     0.296890      0.502144      0.147028     Biso  1.000000 O
   O76        1.0     0.203110      0.002144      0.647027     Biso  1.000000 O
   O77        1.0     0.703110      0.002144      0.852973     Biso  1.000000 O
   O78        1.0     0.796890      0.502144      0.352973     Biso  1.000000 O
   O79        1.0     0.703110      0.497856      0.852973     Biso  1.000000 O
   O80        1.0     0.796890      0.997856      0.352973     Biso  1.000000 O
   O81        1.0     0.108994      0.126746      0.095867     Biso  1.000000 O
   O82        1.0     0.395702      0.625288      0.595817     Biso  1.000000 O
   O83        1.0     0.108994      0.373254      0.095867     Biso  1.000000 O
   O84        1.0     0.403412      0.871537      0.594944     Biso  1.000000 O
   O85        1.0     0.890577      0.872841      0.904788     Biso  1.000000 O
   O86        1.0     0.608994      0.373254      0.404133     Biso  1.000000 O
   O87        1.0     0.890499      0.626947      0.904655     Biso  1.000000 O
   O88        1.0     0.608994      0.126746      0.404133     Biso  1.000000 O
   O89        1.0     0.083123      0.046356      0.943295     Biso  1.000000 O
   O90        1.0     0.416877      0.546356      0.443295     Biso  1.000000 O
   O91        1.0     0.083123      0.453644      0.943295     Biso  1.000000 O
   O92        1.0     0.415204      0.954443      0.443290     Biso  1.000000 O
   O93        1.0     0.915981      0.953844      0.056995     Biso  1.000000 O
   O94        1.0     0.583123      0.453644      0.556705     Biso  1.000000 O
   O95        1.0     0.916877      0.546356      0.056705     Biso  1.000000 O
   O96        1.0     0.583123      0.046356      0.556705     Biso  1.000000 O
   O97        1.0     0.128960      0.079409      0.763059     Biso  1.000000 O
   O98        1.0     0.371040      0.579409      0.263059     Biso  1.000000 O
   O99        1.0     0.128960      0.420591      0.763059     Biso  1.000000 O
   O100       1.0     0.370981      0.920308      0.261928     Biso  1.000000 O
   O101       1.0     0.871002      0.920564      0.237035     Biso  1.000000 O
   O102       1.0     0.628960      0.420591      0.736941     Biso  1.000000 O
   O103       1.0     0.871040      0.579409      0.236941     Biso  1.000000 O
   O104       1.0     0.628960      0.079409      0.736941     Biso  1.000000 O
   O105       1.0     0.073372      0.960169      0.791628     Biso  1.000000 O
   O106       1.0     0.426424      0.460303      0.290879     Biso  1.000000 O
   O107       1.0     0.073576      0.539697      0.790879     Biso  1.000000 O
   O108       1.0     0.426424      0.039697      0.290879     Biso  1.000000 O
   O109       1.0     0.926424      0.039697      0.209121     Biso  1.000000 O
   O110       1.0     0.573576      0.539697      0.709121     Biso  1.000000 O
   O111       1.0     0.926424      0.460303      0.209121     Biso  1.000000 O
   O112       1.0     0.575186      0.959959      0.710383     Biso  1.000000 O
   O113       1.0     0.216490      0.136163      0.646516     Biso  1.000000 O
   O114       1.0     0.283231      0.635722      0.145440     Biso  1.000000 O
   O115       1.0     0.216490      0.363837      0.646516     Biso  1.000000 O
   O116       1.0     0.283417      0.863848      0.143887     Biso  1.000000 O
   O117       1.0     0.783099      0.864083      0.353008     Biso  1.000000 O
   O118       1.0     0.716490      0.363837      0.853484     Biso  1.000000 O
   O119       1.0     0.783853      0.636389      0.353126     Biso  1.000000 O
   O120       1.0     0.716490      0.136163      0.853484     Biso  1.000000 O
   O121       1.0     0.497967      0.847697      0.717435     Biso  1.000000 O
   O122       1.0     0.004187      0.353136      0.214009     Biso  1.000000 O
   O123       1.0     0.496466      0.653425      0.708444     Biso  1.000000 O
   O124       1.0     0.004187      0.146864      0.214009     Biso  1.000000 O
   O125       1.0     0.504187      0.146864      0.285991     Biso  1.000000 O
   O126       1.0     0.994054      0.645243      0.783081     Biso  1.000000 O
   O127       1.0     0.504187      0.353136      0.285991     Biso  1.000000 O
   O128       1.0     0.993980      0.854918      0.784005     Biso  1.000000 O
   O129       1.0     0.378199      0.833999      0.783563     Biso  1.000000 O
   O130       1.0     0.122339      0.333069      0.285807     Biso  1.000000 O
   O131       1.0     0.379743      0.665540      0.785545     Biso  1.000000 O
   O132       1.0     0.122339      0.166931      0.285807     Biso  1.000000 O
   O133       1.0     0.622339      0.166931      0.214193     Biso  1.000000 O
   O134       1.0     0.873211      0.668367      0.717416     Biso  1.000000 O
   O135       1.0     0.622339      0.333069      0.214193     Biso  1.000000 O
   O136       1.0     0.874143      0.831803      0.716555     Biso  1.000000 O
   O137       1.0     0.366620      0.749100      0.624667     Biso  1.000000 O
   O138       1.0     0.075921      0.250000      0.147243     Biso  1.000000 O
   O139       1.0     0.575921      0.250000      0.352757     Biso  1.000000 O
   O140       1.0     0.924965      0.749918      0.852329     Biso  1.000000 O
   O141       1.0     0.316959      0.863723      0.952700     Biso  1.000000 O
   O142       1.0     0.182472      0.364636      0.455308     Biso  1.000000 O
   O143       1.0     0.317347      0.635650      0.954117     Biso  1.000000 O
   O144       1.0     0.182472      0.135364      0.455308     Biso  1.000000 O
   O145       1.0     0.682472      0.135364      0.044692     Biso  1.000000 O
   O146       1.0     0.816430      0.635641      0.545153     Biso  1.000000 O
   O147       1.0     0.682472      0.364636      0.044692     Biso  1.000000 O
   O148       1.0     0.816130      0.865129      0.544954     Biso  1.000000 O
   O149       1.0     0.247045      0.847901      0.787996     Biso  1.000000 O
   O150       1.0     0.252442      0.347029      0.290604     Biso  1.000000 O
   O151       1.0     0.247926      0.653125      0.789377     Biso  1.000000 O
   O152       1.0     0.252442      0.152971      0.290604     Biso  1.000000 O
   O153       1.0     0.752442      0.152971      0.209396     Biso  1.000000 O
   O154       1.0     0.742802      0.649633      0.706290     Biso  1.000000 O
   O155       1.0     0.752442      0.347029      0.209396     Biso  1.000000 O
   O156       1.0     0.744098      0.849017      0.707174     Biso  1.000000 O
   O157       1.0     0.291936      0.749780      0.048903     Biso  1.000000 O
   O158       1.0     0.204751      0.250000      0.550248     Biso  1.000000 O
   O159       1.0     0.704751      0.250000      0.949752     Biso  1.000000 O
   O160       1.0     0.798248      0.750497      0.449093     Biso  1.000000 O
   O161       1.0     0.194618      0.835025      0.003991     Biso  1.000000 O
   O162       1.0     0.303967      0.332717      0.506256     Biso  1.000000 O
   O163       1.0     0.194853      0.664772      0.004715     Biso  1.000000 O
   O164       1.0     0.303967      0.167283      0.506256     Biso  1.000000 O
   O165       1.0     0.803967      0.167283      0.993744     Biso  1.000000 O
   O166       1.0     0.696567      0.671228      0.490719     Biso  1.000000 O
   O167       1.0     0.803967      0.332717      0.993744     Biso  1.000000 O
   O168       1.0     0.695885      0.829604      0.491500     Biso  1.000000 O
   O169       1.0     0.093530      0.750184      0.020873     Biso  1.000000 O
   O170       1.0     0.406844      0.250000      0.519959     Biso  1.000000 O
   O171       1.0     0.906844      0.250000      0.980041     Biso  1.000000 O
   O172       1.0     0.591030      0.749924      0.482072     Biso  1.000000 O
   O173       1.0     0.076760      0.869459      0.936352     Biso  1.000000 O
   O174       1.0     0.419168      0.369616      0.434205     Biso  1.000000 O
   O175       1.0     0.077688      0.631629      0.933996     Biso  1.000000 O
   O176       1.0     0.419168      0.130384      0.434205     Biso  1.000000 O
   O177       1.0     0.919168      0.130384      0.065795     Biso  1.000000 O
   O178       1.0     0.585078      0.627208      0.563361     Biso  1.000000 O
   O179       1.0     0.919168      0.369616      0.065795     Biso  1.000000 O
   O180       1.0     0.583066      0.871895      0.564463     Biso  1.000000 O
   O181       1.0     0.120107      0.838177      0.752430     Biso  1.000000 O
   O182       1.0     0.378594      0.339902      0.247506     Biso  1.000000 O
   O183       1.0     0.120943      0.659679      0.748237     Biso  1.000000 O
   O184       1.0     0.378594      0.160098      0.247506     Biso  1.000000 O
   O185       1.0     0.878594      0.160098      0.252495     Biso  1.000000 O
   O186       1.0     0.615830      0.665728      0.753121     Biso  1.000000 O
   O187       1.0     0.878594      0.339902      0.252495     Biso  1.000000 O
   O188       1.0     0.617437      0.833037      0.751938     Biso  1.000000 O
   O189       1.0     0.200267      0.749763      0.671217     Biso  1.000000 O
   O190       1.0     0.296813      0.250000      0.171318     Biso  1.000000 O
   O191       1.0     0.796813      0.250000      0.328682     Biso  1.000000 O
   O192       1.0     0.703067      0.749415      0.827086     Biso  1.000000 O
   Si1        1.0     0.424010      0.071224      0.687981     Biso  1.000000 Si
   Si2        1.0     0.075990      0.571224      0.187981     Biso  1.000000 Si
   Si3        1.0     0.424010      0.428776      0.687981     Biso  1.000000 Si
   Si4        1.0     0.076188      0.929029      0.188965     Biso  1.000000 Si
   Si5        1.0     0.575272      0.928823      0.311987     Biso  1.000000 Si
   Si6        1.0     0.924010      0.428776      0.812019     Biso  1.000000 Si
   Si7        1.0     0.575990      0.571224      0.312019     Biso  1.000000 Si
   Si8        1.0     0.924010      0.071224      0.812019     Biso  1.000000 Si
   Si9        1.0     0.322720      0.032351      0.843257     Biso  1.000000 Si
   Si10       1.0     0.177280      0.532351      0.343257     Biso  1.000000 Si
   Si11       1.0     0.322720      0.467649      0.843257     Biso  1.000000 Si
   Si12       1.0     0.178041      0.967683      0.343316     Biso  1.000000 Si
   Si13       1.0     0.676936      0.967662      0.157029     Biso  1.000000 Si
   Si14       1.0     0.822720      0.467649      0.656743     Biso  1.000000 Si
   Si15       1.0     0.677280      0.532351      0.156743     Biso  1.000000 Si
   Si16       1.0     0.822720      0.032351      0.656743     Biso  1.000000 Si
   Si17       1.0     0.277939      0.051958      0.061131     Biso  1.000000 Si
   Si18       1.0     0.222061      0.551958      0.561131     Biso  1.000000 Si
   Si19       1.0     0.277939      0.448042      0.061131     Biso  1.000000 Si
   Si20       1.0     0.222459      0.946407      0.563216     Biso  1.000000 Si
   Si21       1.0     0.721316      0.947932      0.938709     Biso  1.000000 Si
   Si22       1.0     0.777939      0.448042      0.438869     Biso  1.000000 Si
   Si23       1.0     0.722061      0.551958      0.938869     Biso  1.000000 Si
   Si24       1.0     0.777939      0.051958      0.438869     Biso  1.000000 Si
   Si25       1.0     0.122510      0.052778      0.047994     Biso  1.000000 Si
   Si26       1.0     0.377490      0.552778      0.547994     Biso  1.000000 Si
   Si27       1.0     0.122510      0.447222      0.047994     Biso  1.000000 Si
   Si28       1.0     0.380368      0.943320      0.551539     Biso  1.000000 Si
   Si29       1.0     0.877372      0.947073      0.951891     Biso  1.000000 Si
   Si30       1.0     0.622510      0.447222      0.452006     Biso  1.000000 Si
   Si31       1.0     0.877490      0.552778      0.952006     Biso  1.000000 Si
   Si32       1.0     0.622510      0.052778      0.452006     Biso  1.000000 Si
   Si33       1.0     0.072230      0.039095      0.823540     Biso  1.000000 Si
   Si34       1.0     0.427770      0.539095      0.323540     Biso  1.000000 Si
   Si35       1.0     0.072230      0.460905      0.823540     Biso  1.000000 Si
   Si36       1.0     0.426698      0.960891      0.324231     Biso  1.000000 Si
   Si37       1.0     0.927869      0.960905      0.176637     Biso  1.000000 Si
   Si38       1.0     0.572230      0.460905      0.676460     Biso  1.000000 Si
   Si39       1.0     0.927770      0.539095      0.176460     Biso  1.000000 Si
   Si40       1.0     0.572230      0.039095      0.676460     Biso  1.000000 Si
   Si41       1.0     0.201104      0.070382      0.713528     Biso  1.000000 Si
   Si42       1.0     0.298896      0.570382      0.213528     Biso  1.000000 Si
   Si43       1.0     0.201104      0.429618      0.713528     Biso  1.000000 Si
   Si44       1.0     0.298839      0.928992      0.212018     Biso  1.000000 Si
   Si45       1.0     0.798879      0.929857      0.286072     Biso  1.000000 Si
   Si46       1.0     0.701104      0.429618      0.786472     Biso  1.000000 Si
   Si47       1.0     0.798896      0.570382      0.286472     Biso  1.000000 Si
   Si48       1.0     0.701104      0.070382      0.786472     Biso  1.000000 Si
   Si49       1.0     0.414249      0.809620      0.677932     Biso  1.000000 Si
   Si50       1.0     0.077615      0.327715      0.185185     Biso  1.000000 Si
   Si51       1.0     0.412403      0.687064      0.675988     Biso  1.000000 Si
   Si52       1.0     0.077615      0.172285      0.185185     Biso  1.000000 Si
   Si53       1.0     0.577615      0.172285      0.314815     Biso  1.000000 Si
   Si54       1.0     0.921705      0.672171      0.814747     Biso  1.000000 Si
   Si55       1.0     0.577615      0.327715      0.314815     Biso  1.000000 Si
   Si56       1.0     0.921735      0.827719      0.814854     Biso  1.000000 Si
   Si57       1.0     0.317228      0.874111      0.831720     Biso  1.000000 Si
   Si58       1.0     0.183068      0.374487      0.334784     Biso  1.000000 Si
   Si59       1.0     0.317885      0.626005      0.833003     Biso  1.000000 Si
   Si60       1.0     0.183068      0.125513      0.334784     Biso  1.000000 Si
   Si61       1.0     0.683068      0.125513      0.165216     Biso  1.000000 Si
   Si62       1.0     0.815039      0.625187      0.665328     Biso  1.000000 Si
   Si63       1.0     0.683068      0.374487      0.165216     Biso  1.000000 Si
   Si64       1.0     0.815482      0.874778      0.665299     Biso  1.000000 Si
   Si65       1.0     0.271462      0.827993      0.037006     Biso  1.000000 Si
   Si66       1.0     0.227331      0.327730      0.539796     Biso  1.000000 Si
   Si67       1.0     0.271629      0.671439      0.038292     Biso  1.000000 Si
   Si68       1.0     0.227331      0.172270      0.539796     Biso  1.000000 Si
   Si69       1.0     0.727331      0.172270      0.960204     Biso  1.000000 Si
   Si70       1.0     0.773594      0.673403      0.459026     Biso  1.000000 Si
   Si71       1.0     0.727331      0.327730      0.960204     Biso  1.000000 Si
   Si72       1.0     0.772907      0.827448      0.459173     Biso  1.000000 Si
   Si73       1.0     0.116066      0.828571      0.023233     Biso  1.000000 Si
   Si74       1.0     0.382905      0.327987      0.522827     Biso  1.000000 Si
   Si75       1.0     0.116208      0.671841      0.022314     Biso  1.000000 Si
   Si76       1.0     0.382905      0.172013      0.522827     Biso  1.000000 Si
   Si77       1.0     0.882905      0.172013      0.977173     Biso  1.000000 Si
   Si78       1.0     0.617597      0.672760      0.475045     Biso  1.000000 Si
   Si79       1.0     0.882905      0.327987      0.977173     Biso  1.000000 Si
   Si80       1.0     0.616751      0.827559      0.475778     Biso  1.000000 Si
   Si81       1.0     0.066975      0.880557      0.816446     Biso  1.000000 Si
   Si82       1.0     0.431642      0.380531      0.315052     Biso  1.000000 Si
   Si83       1.0     0.067348      0.619454      0.814517     Biso  1.000000 Si
   Si84       1.0     0.431642      0.119469      0.315052     Biso  1.000000 Si
   Si85       1.0     0.931642      0.119469      0.184948     Biso  1.000000 Si
   Si86       1.0     0.566322      0.618184      0.680146     Biso  1.000000 Si
   Si87       1.0     0.931642      0.380531      0.184948     Biso  1.000000 Si
   Si88       1.0     0.566874      0.881492      0.682357     Biso  1.000000 Si
   Si89       1.0     0.193026      0.827550      0.704146     Biso  1.000000 Si
   Si90       1.0     0.304981      0.328147      0.203483     Biso  1.000000 Si
   Si91       1.0     0.194661      0.671700      0.703310     Biso  1.000000 Si
   Si92       1.0     0.304981      0.171853      0.203483     Biso  1.000000 Si
   Si93       1.0     0.804981      0.171853      0.296517     Biso  1.000000 Si
   Si94       1.0     0.693168      0.671290      0.795153     Biso  1.000000 Si
   Si95       1.0     0.804981      0.328147      0.296517     Biso  1.000000 Si
   Si96       1.0     0.693973      0.827772      0.795444     Biso  1.000000 Si
   Sc1        1.0     0.527916      0.750176      0.762805     Biso  1.000000 Sc
